[General]
network = assignment2.DistributedNetwork
sim-time-limit = 500s

*.numClients = 2
*.numServers = 5

*.client[0].clientId = "C1"
*.client[1].clientId = "C2"


*.server[0].serverId = "S1"
*.server[1].serverId = "S2"
*.server[2].serverId = "S3"
*.server[3].serverId = "S4"
*.server[4].serverId = "S5"

*.server[0].isMalicious = false
*.server[1].isMalicious = false
*.server[2].isMalicious = false
*.server[3].isMalicious = false
*.server[4].isMalicious = true